Version 4
SHEET 1 880 680
WIRE -864 -560 -864 -656
WIRE -640 -560 -736 -560
WIRE -368 -560 -560 -560
WIRE -1520 -512 -1520 -544
WIRE -864 -464 -864 -560
WIRE -864 -432 -864 -464
WIRE -736 -432 -736 -560
WIRE -736 -432 -864 -432
WIRE -688 -432 -736 -432
WIRE -1520 -400 -1520 -432
WIRE -1424 -400 -1520 -400
WIRE -368 -400 -368 -560
WIRE -368 -400 -496 -400
WIRE -1520 -384 -1520 -400
WIRE -1424 -384 -1424 -400
WIRE -864 -368 -864 -432
WIRE -1424 -272 -1424 -304
WIRE -1104 -272 -1104 -304
WIRE -1424 -176 -1424 -192
WIRE -1104 -176 -1104 -192
WIRE -1424 -32 -1424 -64
WIRE -1104 -32 -1104 -64
WIRE -416 48 -544 48
WIRE -256 48 -352 48
WIRE -96 48 -256 48
WIRE -1424 64 -1424 48
WIRE -1104 64 -1104 48
WIRE -96 64 -96 48
WIRE -256 80 -256 48
WIRE -256 176 -256 144
WIRE -96 176 -96 144
FLAG -256 176 0
FLAG -96 176 0
FLAG -1104 -176 0
FLAG -1104 -304 V_2
FLAG -1424 -176 0
FLAG -1424 -304 V_1
FLAG -1424 64 0
FLAG -1424 -64 V_3
FLAG -1104 64 0
FLAG -1104 -64 V_4
FLAG -1520 -544 3V
FLAG -496 -432 3V
FLAG -496 -368 3V
FLAG -688 -400 0
FLAG -944 -656 V_1
FLAG -944 -560 V_2
FLAG -944 -464 V_3
FLAG -944 -368 V_4
FLAG -1424 -384 0
FLAG -1520 -304 -3V
FLAG -688 -368 -3V
FLAG -368 -400 IN
FLAG -624 48 IN
SYMBOL diode -416 64 R270
WINDOW 0 32 32 VTop 2
WINDOW 3 0 32 VBottom 2
SYMATTR InstName D1
SYMATTR Value 1N4148
SYMBOL cap -272 80 R0
SYMATTR InstName C1
SYMATTR Value 500n
SYMBOL res -112 48 R0
SYMATTR InstName R1
SYMATTR Value 5.6k
SYMBOL res -528 32 R90
WINDOW 0 0 56 VBottom 2
WINDOW 3 32 56 VTop 2
SYMATTR InstName R2
SYMATTR Value 10
SYMBOL voltage -1104 -288 R0
WINDOW 123 0 0 Left 0
WINDOW 39 0 0 Left 0
SYMATTR InstName V1
SYMATTR Value SINE(0 1.5 1k 2m 0 0 1)
SYMBOL voltage -1424 -288 R0
WINDOW 123 0 0 Left 0
WINDOW 39 0 0 Left 0
SYMATTR InstName V2
SYMATTR Value SINE(0 1 1k 1m 0 0 1)
SYMBOL voltage -1424 -48 R0
WINDOW 123 0 0 Left 0
WINDOW 39 0 0 Left 0
SYMATTR InstName V3
SYMATTR Value SINE(0 2 1k 3m 0 0 1)
SYMBOL voltage -1104 -48 R0
WINDOW 123 0 0 Left 0
WINDOW 39 0 0 Left 0
SYMATTR InstName V4
SYMATTR Value SINE(0 1 1k 4m 0 0 1)
SYMBOL AutoGenerated\\OPA836 -592 -400 R0
SYMATTR InstName U1
SYMBOL voltage -1520 -528 R0
WINDOW 123 0 0 Left 0
WINDOW 39 0 0 Left 0
SYMATTR InstName V5
SYMATTR Value 3V
SYMBOL res -848 -576 R90
WINDOW 0 0 56 VBottom 2
WINDOW 3 32 56 VTop 2
SYMATTR InstName R3
SYMATTR Value 1K
SYMBOL res -848 -672 R90
WINDOW 0 0 56 VBottom 2
WINDOW 3 32 56 VTop 2
SYMATTR InstName R4
SYMATTR Value 1K
SYMBOL res -848 -480 R90
WINDOW 0 0 56 VBottom 2
WINDOW 3 32 56 VTop 2
SYMATTR InstName R5
SYMATTR Value 1K
SYMBOL res -848 -384 R90
WINDOW 0 0 56 VBottom 2
WINDOW 3 32 56 VTop 2
SYMATTR InstName R6
SYMATTR Value 1K
SYMBOL res -544 -576 R90
WINDOW 0 0 56 VBottom 2
WINDOW 3 32 56 VTop 2
SYMATTR InstName R7
SYMATTR Value 1K
SYMBOL voltage -1520 -400 R0
WINDOW 123 0 0 Left 0
WINDOW 39 0 0 Left 0
SYMATTR InstName V6
SYMATTR Value 3V
TEXT -504 -208 Left 2 !.tran 15m
TEXT 88 -144 Left 2 !;step dec param C 100u 500n 10
